<?xml version="1.0" encoding="UTF-8"?>

<!-- generated on 12/04/20 10:02:57 by Eclipse SUMO GUI Version 1.7.0
-->

<configuration xmlns:xsi="http://www.w3.org/2001/XMLSchema-instance" xsi:noNamespaceSchemaLocation="http://sumo.dlr.de/xsd/sumoConfiguration.xsd">

    <input>
        <net-file value="C:\Users\Mr.Son\Desktop\sumo\test\test.net.xml"/>
        <route-files value="C:\Users\Mr.Son\Desktop\sumo\test\test.rou.xml"/>
    </input>

</configuration>
