<?xml version="1.0" encoding="UTF-8"?>

<!-- generated on 12/05/20 06:40:02 by Eclipse SUMO netedit Version 1.7.0
<configuration xmlns:xsi="http://www.w3.org/2001/XMLSchema-instance" xsi:noNamespaceSchemaLocation="http://sumo.dlr.de/xsd/netconvertConfiguration.xsd">

    <input>
        <sumo-net-file value="C:\Users\Mr.Son\Desktop\sumo\test\test.net.xml"/>
    </input>

    <output>
        <output-file value="C:\Users\Mr.Son\Desktop\sumo\test\test.net.xml"/>
    </output>

    <processing>
        <geometry.min-radius.fix.railways value="false"/>
        <geometry.max-grade.fix value="false"/>
        <offset.disable-normalization value="true"/>
        <lefthand value="false"/>
    </processing>

    <junctions>
        <no-internal-links value="false"/>
        <no-turnarounds value="true"/>
        <junctions.corner-detail value="5"/>
        <junctions.limit-turn-speed value="5.5"/>
        <rectangular-lane-cut value="false"/>
    </junctions>

    <pedestrian>
        <walkingareas value="false"/>
    </pedestrian>

    <netedit>
        <additional-files value="C:\Users\Mr.Son\Desktop\sumo\test\test.add.xml"/>
        <route-files value="C:\Users\Mr.Son\Desktop\sumo\test\test.rou.xml"/>
    </netedit>

    <report>
        <aggregate-warnings value="5"/>
    </report>

</configuration>
-->

<net version="1.6" junctionCornerDetail="5" limitTurnSpeed="5.50" xmlns:xsi="http://www.w3.org/2001/XMLSchema-instance" xsi:noNamespaceSchemaLocation="http://sumo.dlr.de/xsd/net_file.xsd">

    <location netOffset="0.00,0.00" convBoundary="-166.95,-179.88,231.63,279.94" origBoundary="-10000000000.00,-10000000000.00,10000000000.00,10000000000.00" projParameter="!"/>

    <edge id=":0_0" function="internal">
        <lane id=":0_0_0" index="0" speed="6.58" length="9.23" shape="53.57,83.68 51.01,83.96 49.16,84.97 48.02,86.69 47.58,89.12"/>
    </edge>
    <edge id=":0_1" function="internal">
        <lane id=":0_1_0" index="0" speed="13.89" length="34.08" shape="53.57,83.68 43.50,82.92 36.66,81.63 29.83,80.31 19.75,79.44"/>
        <lane id=":0_1_1" index="1" speed="13.89" length="34.08" shape="53.65,80.48 43.59,79.73 36.76,78.43 29.93,77.11 19.87,76.24"/>
        <lane id=":0_1_2" index="2" speed="13.89" length="34.08" shape="53.73,77.28 43.68,76.53 36.86,75.24 30.04,73.91 19.99,73.05"/>
        <lane id=":0_1_3" index="3" speed="13.89" length="34.08" shape="53.81,74.08 43.77,73.33 36.96,72.04 30.14,70.71 20.10,69.85"/>
    </edge>
    <edge id=":0_5" function="internal">
        <lane id=":0_5_0" index="0" speed="11.82" length="8.74" shape="53.89,70.88 45.80,69.32 45.40,69.02"/>
    </edge>
    <edge id=":0_27" function="internal">
        <lane id=":0_27_0" index="0" speed="11.82" length="23.75" shape="45.40,69.02 40.14,65.10 36.90,58.21 36.08,48.67"/>
    </edge>
    <edge id=":0_6" function="internal">
        <lane id=":0_6_0" index="0" speed="6.48" length="9.03" shape="48.88,49.13 49.14,51.60 50.13,53.38 51.84,54.47 54.29,54.89"/>
    </edge>
    <edge id=":0_7" function="internal">
        <lane id=":0_7_0" index="0" speed="7.30" length="11.75" shape="48.88,49.13 49.09,53.00 50.05,55.78 51.76,57.47 54.21,58.08"/>
    </edge>
    <edge id=":0_8" function="internal">
        <lane id=":0_8_0" index="0" speed="8.08" length="14.61" shape="48.88,49.13 49.04,54.40 49.97,58.18 51.67,60.47 54.13,61.28"/>
    </edge>
    <edge id=":0_9" function="internal">
        <lane id=":0_9_0" index="0" speed="13.89" length="40.05" shape="48.88,49.13 47.58,89.12"/>
        <lane id=":0_9_1" index="1" speed="13.89" length="40.05" shape="45.68,49.01 44.38,89.03"/>
        <lane id=":0_9_2" index="2" speed="13.89" length="40.05" shape="42.48,48.90 41.19,88.94"/>
        <lane id=":0_9_3" index="3" speed="13.89" length="40.05" shape="39.28,48.78 37.99,88.85"/>
    </edge>
    <edge id=":0_13" function="internal">
        <lane id=":0_13_0" index="0" speed="11.86" length="10.48" shape="39.28,48.78 37.79,58.25 37.35,59.03"/>
    </edge>
    <edge id=":0_28" function="internal">
        <lane id=":0_28_0" index="0" speed="11.86" length="21.94" shape="37.35,59.03 34.09,64.92 28.20,68.78 20.10,69.85"/>
    </edge>
    <edge id=":0_14" function="internal">
        <lane id=":0_14_0" index="0" speed="7.36" length="7.92" shape="20.57,57.06 23.04,56.59 24.85,54.97 26.00,52.22"/>
    </edge>
    <edge id=":0_15" function="internal">
        <lane id=":0_15_0" index="0" speed="13.89" length="33.71" shape="20.57,57.06 54.21,58.08"/>
        <lane id=":0_15_1" index="1" speed="13.89" length="33.71" shape="20.45,60.25 54.13,61.28"/>
        <lane id=":0_15_2" index="2" speed="13.89" length="33.71" shape="20.34,63.45 54.05,64.48"/>
        <lane id=":0_15_3" index="3" speed="13.89" length="33.71" shape="20.22,66.65 53.97,67.68"/>
    </edge>
    <edge id=":0_19" function="internal">
        <lane id=":0_19_0" index="0" speed="11.88" length="9.39" shape="20.22,66.65 28.22,68.29 29.19,69.02"/>
    </edge>
    <edge id=":0_29" function="internal">
        <lane id=":0_29_0" index="0" speed="7.36" length="3.93" shape="26.00,52.22 26.49,48.32"/>
    </edge>
    <edge id=":0_30" function="internal">
        <lane id=":0_30_0" index="0" speed="11.88" length="22.93" shape="29.19,69.02 33.85,72.54 37.10,79.39 37.99,88.85"/>
    </edge>
    <edge id=":0_20" function="internal">
        <lane id=":0_20_0" index="0" speed="7.39" length="7.26" shape="25.20,88.49 24.95,84.61 23.96,81.81 23.68,81.53"/>
    </edge>
    <edge id=":0_21" function="internal">
        <lane id=":0_21_0" index="0" speed="13.89" length="40.16" shape="25.20,88.49 26.49,48.32"/>
        <lane id=":0_21_1" index="1" speed="13.89" length="40.16" shape="28.40,88.58 29.69,48.43"/>
        <lane id=":0_21_2" index="2" speed="13.89" length="40.16" shape="31.59,88.67 32.89,48.55"/>
        <lane id=":0_21_3" index="3" speed="13.89" length="40.16" shape="34.79,88.76 36.08,48.67"/>
    </edge>
    <edge id=":0_25" function="internal">
        <lane id=":0_25_0" index="0" speed="12.34" length="12.08" shape="34.79,88.76 36.26,77.97 36.77,76.90"/>
    </edge>
    <edge id=":0_26" function="internal">
        <lane id=":0_26_0" index="0" speed="11.87" length="10.54" shape="34.79,88.76 36.22,79.37 36.72,78.46"/>
    </edge>
    <edge id=":0_31" function="internal">
        <lane id=":0_31_0" index="0" speed="7.39" length="4.60" shape="23.68,81.53 22.23,80.08 19.75,79.44"/>
    </edge>
    <edge id=":0_32" function="internal">
        <lane id=":0_32_0" index="0" speed="12.34" length="23.03" shape="36.77,76.90 39.96,70.32 45.89,65.83 54.05,64.48"/>
    </edge>
    <edge id=":0_33" function="internal">
        <lane id=":0_33_0" index="0" speed="11.87" length="21.88" shape="36.72,78.46 39.89,72.72 45.81,68.83 53.97,67.68"/>
    </edge>
    <edge id=":0_c0" function="crossing" crossingEdges="32 31">
        <lane id=":0_c0_0" index="0" allow="pedestrian" speed="1.00" length="25.60" width="4.00" shape="24.82,50.26 50.40,51.19"/>
    </edge>
    <edge id=":0_c1" function="crossing" crossingEdges="42 41">
        <lane id=":0_c1_0" index="0" allow="pedestrian" speed="1.00" length="25.60" width="4.00" shape="21.69,81.11 22.63,55.53"/>
    </edge>
    <edge id=":0_w0" function="walkingarea">
        <lane id=":0_w0_0" index="0" allow="pedestrian" speed="1.00" length="31.44" width="3.20" shape="53.53,85.28 53.61,82.08 53.61,82.08 53.69,78.88 53.69,78.88 53.77,75.68 53.77,75.68 53.85,72.48 53.85,72.48 53.93,69.28 53.93,69.28 54.01,66.08 54.01,66.08 54.09,62.88 54.09,62.88 54.17,59.68 54.17,59.68 54.25,56.49 54.25,56.49 54.33,53.29 50.47,49.19 47.28,49.07 47.28,49.07 44.08,48.96 44.08,48.96 40.88,48.84 40.88,48.84 37.68,48.72 37.68,48.72 34.49,48.61 34.49,48.61 31.29,48.49 31.29,48.49 28.09,48.37 28.09,48.37 24.89,48.26 20.63,55.46 20.51,58.65 20.51,58.65 20.39,61.85 20.39,61.85 20.28,65.05 20.28,65.05 20.16,68.25 20.16,68.25 20.04,71.45 20.04,71.45 19.93,74.64 19.93,74.64 19.81,77.84 19.81,77.84 19.69,81.04 23.60,88.45 26.80,88.54 26.80,88.54 30.00,88.63 30.00,88.63 33.19,88.72 33.19,88.72 36.39,88.81 36.39,88.81 39.59,88.90 39.59,88.90 42.79,88.99 42.79,88.99 45.98,89.08 45.98,89.08 49.18,89.17 52.24,85.36 51.17,85.66 50.33,86.20 49.72,86.96 49.33,87.95"/>
    </edge>
    <edge id=":0_w1" function="walkingarea">
        <lane id=":0_w1_0" index="0" allow="pedestrian" speed="1.00" length="41.47" width="4.00" shape="50.33,53.19 50.47,49.19 19.69,81.04 23.69,81.19"/>
    </edge>
    <edge id=":0_w2" function="walkingarea">
        <lane id=":0_w2_0" index="0" allow="pedestrian" speed="1.00" length="5.71" width="4.00" shape="24.62,55.60 20.63,55.46 24.89,48.26 24.75,52.26"/>
    </edge>
    <edge id=":1_w0" function="walkingarea">
        <lane id=":1_w0_0" index="0" allow="pedestrian" speed="1.00" length="22.38" width="3.20" shape="31.03,279.55 27.83,279.46 27.83,279.46 24.64,279.37 24.64,279.37 21.44,279.28 21.44,279.28 18.24,279.19 43.80,279.91 40.61,279.82 40.61,279.82 37.41,279.73 37.41,279.73 34.21,279.64 34.21,279.64 31.01,279.55"/>
    </edge>
    <edge id=":2_w0" function="walkingarea">
        <lane id=":2_w0_0" index="0" allow="pedestrian" speed="1.00" length="28.80" width="3.20" shape="231.63,73.69 231.55,76.89 231.55,76.89 231.47,80.09 231.47,80.09 231.39,83.29 231.39,83.29 231.31,86.49 231.31,86.49 231.23,89.69 232.03,57.69 231.95,60.89 231.95,60.89 231.87,64.09 231.87,64.09 231.79,67.29 231.79,67.29 231.71,70.49 231.71,70.49 231.63,73.69"/>
    </edge>
    <edge id=":3_w0" function="walkingarea">
        <lane id=":3_w0_0" index="0" allow="pedestrian" speed="1.00" length="22.40" width="3.20" shape="46.01,-179.88 49.21,-179.76 49.21,-179.76 52.41,-179.65 52.41,-179.65 55.60,-179.53 55.60,-179.53 58.80,-179.41 33.22,-180.35 36.42,-180.23 36.42,-180.23 39.61,-180.11 39.61,-180.11 42.81,-180.00 42.81,-180.00 46.01,-179.88"/>
    </edge>
    <edge id=":4_w0" function="walkingarea">
        <lane id=":4_w0_0" index="0" allow="pedestrian" speed="1.00" length="22.40" width="3.20" shape="-166.95,61.43 -166.83,58.23 -166.83,58.23 -166.72,55.03 -166.72,55.03 -166.60,51.84 -166.60,51.84 -166.48,48.64 -167.42,74.22 -167.30,71.02 -167.30,71.02 -167.18,67.83 -167.18,67.83 -167.07,64.63 -167.07,64.63 -166.95,61.43"/>
    </edge>

    <edge id="11" from="1" to="0" priority="-1" spreadType="center" shape="24.62,279.94 30.55,68.88">
        <lane id="11_0" index="0" speed="13.89" length="190.82" shape="19.84,279.24 25.20,88.49"/>
        <lane id="11_1" index="1" speed="13.89" length="190.82" shape="23.04,279.33 28.40,88.58"/>
        <lane id="11_2" index="2" speed="13.89" length="190.82" shape="26.24,279.42 31.59,88.67"/>
        <lane id="11_3" index="3" speed="13.89" length="190.82" shape="29.43,279.51 34.79,88.76"/>
    </edge>
    <edge id="12" from="0" to="1" priority="-1">
        <lane id="12_0" index="0" speed="13.89" length="190.82" shape="47.58,89.12 42.21,279.87"/>
        <lane id="12_1" index="1" speed="13.89" length="190.82" shape="44.38,89.03 39.01,279.78"/>
        <lane id="12_2" index="2" speed="13.89" length="190.82" shape="41.19,88.94 35.81,279.69"/>
        <lane id="12_3" index="3" speed="13.89" length="190.82" shape="37.99,88.85 32.61,279.60"/>
    </edge>
    <edge id="21" from="2" to="0" priority="-1">
        <lane id="21_0" index="0" speed="13.89" length="177.75" shape="231.27,88.09 53.57,83.68"/>
        <lane id="21_1" index="1" speed="13.89" length="177.75" shape="231.35,84.89 53.65,80.48"/>
        <lane id="21_2" index="2" speed="13.89" length="177.75" shape="231.43,81.69 53.73,77.28"/>
        <lane id="21_3" index="3" speed="13.89" length="177.75" shape="231.51,78.49 53.81,74.08"/>
        <lane id="21_4" index="4" speed="13.89" length="177.75" shape="231.59,75.29 53.89,70.88"/>
    </edge>
    <edge id="22" from="0" to="2" priority="-1">
        <lane id="22_0" index="0" speed="13.89" length="177.75" shape="54.29,54.89 231.99,59.29"/>
        <lane id="22_1" index="1" speed="13.89" length="177.75" shape="54.21,58.08 231.91,62.49"/>
        <lane id="22_2" index="2" speed="13.89" length="177.75" shape="54.13,61.28 231.83,65.69"/>
        <lane id="22_3" index="3" speed="13.89" length="177.75" shape="54.05,64.48 231.75,68.89"/>
        <lane id="22_4" index="4" speed="13.89" length="177.75" shape="53.97,67.68 231.67,72.09"/>
    </edge>
    <edge id="31" from="3" to="0" priority="-1">
        <lane id="31_0" index="0" speed="13.89" length="228.76" shape="57.20,-179.47 48.88,49.13"/>
        <lane id="31_1" index="1" speed="13.89" length="228.76" shape="54.00,-179.59 45.68,49.01"/>
        <lane id="31_2" index="2" speed="13.89" length="228.76" shape="50.81,-179.71 42.48,48.90"/>
        <lane id="31_3" index="3" speed="13.89" length="228.76" shape="47.61,-179.82 39.28,48.78"/>
    </edge>
    <edge id="32" from="0" to="3" priority="-1">
        <lane id="32_0" index="0" speed="13.89" length="228.76" shape="26.49,48.32 34.82,-180.29"/>
        <lane id="32_1" index="1" speed="13.89" length="228.76" shape="29.69,48.43 38.02,-180.17"/>
        <lane id="32_2" index="2" speed="13.89" length="228.76" shape="32.89,48.55 41.21,-180.05"/>
        <lane id="32_3" index="3" speed="13.89" length="228.76" shape="36.08,48.67 44.41,-179.94"/>
    </edge>
    <edge id="41" from="4" to="0" priority="-1">
        <lane id="41_0" index="0" speed="13.89" length="187.24" shape="-166.54,50.24 20.57,57.06"/>
        <lane id="41_1" index="1" speed="13.89" length="187.24" shape="-166.66,53.44 20.45,60.25"/>
        <lane id="41_2" index="2" speed="13.89" length="187.24" shape="-166.78,56.63 20.34,63.45"/>
        <lane id="41_3" index="3" speed="13.89" length="187.24" shape="-166.89,59.83 20.22,66.65"/>
    </edge>
    <edge id="42" from="0" to="4" priority="-1">
        <lane id="42_0" index="0" speed="13.89" length="187.24" shape="19.75,79.44 -167.36,72.62"/>
        <lane id="42_1" index="1" speed="13.89" length="187.24" shape="19.87,76.24 -167.24,69.42"/>
        <lane id="42_2" index="2" speed="13.89" length="187.24" shape="19.99,73.05 -167.12,66.23"/>
        <lane id="42_3" index="3" speed="13.89" length="187.24" shape="20.10,69.85 -167.01,63.03"/>
    </edge>

    <tlLogic id="0" type="static" programID="0" offset="0">
        <phase duration="33" state="GGGGGgrrrrrrrrgGGGGgrrrrrrrGr"/>
        <phase duration="5"  state="GGGGGgrrrrrrrrgGGGGgrrrrrrrrr"/>
        <phase duration="3"  state="yyyyygrrrrrrrryyyyygrrrrrrrrr"/>
        <phase duration="6"  state="rrrrrGrrrrrrrrrrrrrGrrrrrrrrr"/>
        <phase duration="3"  state="rrrrryrrrrrrrrrrrrryrrrrrrrrr"/>
        <phase duration="32" state="rrrrrrGGGGGGGgrrrrrrgGGGGggrG"/>
        <phase duration="5"  state="rrrrrrGGGGGGGgrrrrrrgGGGGggrr"/>
        <phase duration="3"  state="rrrrrryyyyyyyyrrrrrryyyyyyyrr"/>
    </tlLogic>

    <junction id="0" type="traffic_light" x="36.95" y="68.86" incLanes="21_0 21_1 21_2 21_3 21_4 31_0 31_1 31_2 31_3 41_0 41_1 41_2 41_3 11_0 11_1 11_2 11_3 :0_w2_0 :0_w1_0" intLanes=":0_0_0 :0_1_0 :0_1_1 :0_1_2 :0_1_3 :0_27_0 :0_6_0 :0_7_0 :0_8_0 :0_9_0 :0_9_1 :0_9_2 :0_9_3 :0_28_0 :0_29_0 :0_15_0 :0_15_1 :0_15_2 :0_15_3 :0_30_0 :0_31_0 :0_21_0 :0_21_1 :0_21_2 :0_21_3 :0_32_0 :0_33_0 :0_c0_0 :0_c1_0" shape="53.53,85.28 54.33,53.29 52.12,52.79 51.37,52.21 50.84,51.42 50.54,50.41 50.47,49.19 24.89,48.26 24.70,50.50 24.30,52.32 23.69,53.73 22.88,54.72 21.86,55.30 20.63,55.46 19.69,81.04 21.95,81.93 22.72,82.97 23.25,84.40 23.55,86.23 23.60,88.45 49.18,89.17 49.72,86.96 50.33,86.20 51.17,85.66 52.24,85.36">
        <request index="0"  response="00000000000000000000000000000" foes="00000000000000001111000000000" cont="0"/>
        <request index="1"  response="10110000100000010000000000000" foes="10111111110000011111000000000" cont="0"/>
        <request index="2"  response="10110000100000010000000000000" foes="10111111110000011111000000000" cont="0"/>
        <request index="3"  response="10110000100000010000000000000" foes="10111111110000011111000000000" cont="0"/>
        <request index="4"  response="10110000100000010000000000000" foes="10111111110000011111000000000" cont="0"/>
        <request index="5"  response="01110000001111010000000000000" foes="01111111001111011111000000000" cont="1"/>
        <request index="6"  response="01000000001111000000000000000" foes="01000000001111000000000000000" cont="0"/>
        <request index="7"  response="01000000001111000000000000000" foes="01000000001111000000000000000" cont="0"/>
        <request index="8"  response="01000000001111000000000000000" foes="01000000001111000000000000000" cont="0"/>
        <request index="9"  response="01000000011111000000000111111" foes="01110000011111000000000111111" cont="0"/>
        <request index="10" response="01000000011111000000000111111" foes="01110000011111000000000111111" cont="0"/>
        <request index="11" response="01000000011111000000000111111" foes="01110000011111000000000111111" cont="0"/>
        <request index="12" response="01000000011111000000000111111" foes="01110000011111000000000111111" cont="0"/>
        <request index="13" response="11001111011111000000000111110" foes="11001111011111000000000111110" cont="1"/>
        <request index="14" response="11000000000000000000000000000" foes="11001111000000000000000000000" cont="1"/>
        <request index="15" response="10110000000000010000000000000" foes="10111111000000011111111100000" cont="0"/>
        <request index="16" response="10110000000000010000000000000" foes="10111111000000011111111100000" cont="0"/>
        <request index="17" response="10110000000000010000000000000" foes="10111111000000011111111100000" cont="0"/>
        <request index="18" response="10110000000000010000000000000" foes="10111111000000011111111100000" cont="0"/>
        <request index="19" response="10110000000000010000000011110" foes="10111111000000011111000011110" cont="1"/>
        <request index="20" response="10000000000000000000000011110" foes="10000000000000000000000011110" cont="1"/>
        <request index="21" response="01000000011111100000000111110" foes="01000000011111110000000111110" cont="0"/>
        <request index="22" response="01000000011111100000000111110" foes="01000000011111110000000111110" cont="0"/>
        <request index="23" response="01000000011111100000000111110" foes="01000000011111110000000111110" cont="0"/>
        <request index="24" response="01000000011111100000000111110" foes="01000000011111110000000111110" cont="0"/>
        <request index="25" response="00000000011111001111000111110" foes="00000000011111001111000111110" cont="1"/>
        <request index="26" response="00000000011111001111000111110" foes="00000000011111001111000111110" cont="1"/>
        <request index="27" response="00000000000000000000000000000" foes="00001111000000111111111100000" cont="0"/>
        <request index="28" response="00000000000000000000000000000" foes="00000000111111110000000011110" cont="0"/>
    </junction>
    <junction id="1" type="dead_end" x="31.01" y="279.55" incLanes="12_0 12_1 12_2 12_3" intLanes="" shape="31.03,279.55 18.24,279.19 43.80,279.91"/>
    <junction id="2" type="dead_end" x="231.63" y="73.69" incLanes="22_0 22_1 22_2 22_3 22_4" intLanes="" shape="231.63,73.69 232.03,57.69 231.63,73.69"/>
    <junction id="3" type="dead_end" x="46.01" y="-179.88" incLanes="32_0 32_1 32_2 32_3" intLanes="" shape="46.01,-179.88 33.22,-180.35 46.01,-179.88"/>
    <junction id="4" type="dead_end" x="-166.95" y="61.43" incLanes="42_0 42_1 42_2 42_3" intLanes="" shape="-166.95,61.43 -167.42,74.22 -166.95,61.43"/>

    <junction id=":0_27_0" type="internal" x="45.40" y="69.02" incLanes=":0_5_0 41_0 41_1 41_2 41_3" intLanes=":0_9_0 :0_9_1 :0_9_2 :0_9_3 :0_13_0 :0_14_0 :0_15_0 :0_15_1 :0_15_2 :0_15_3 :0_21_0 :0_21_1 :0_21_2 :0_21_3 :0_25_0 :0_26_0 :0_c0_0"/>
    <junction id=":0_28_0" type="internal" x="37.35" y="59.03" incLanes=":0_13_0 11_0 11_1 11_2 11_3" intLanes=":0_1_0 :0_1_1 :0_1_2 :0_1_3 :0_5_0 :0_15_0 :0_15_1 :0_15_2 :0_15_3 :0_19_0 :0_20_0 :0_21_0 :0_21_1 :0_21_2 :0_21_3 :0_c0_0 :0_c1_0"/>
    <junction id=":0_29_0" type="internal" x="26.00" y="52.22" incLanes=":0_14_0" intLanes=":0_5_0 :0_21_0 :0_21_1 :0_21_2 :0_21_3 :0_c0_0 :0_c1_0"/>
    <junction id=":0_30_0" type="internal" x="29.19" y="69.02" incLanes=":0_19_0 21_0 21_1 21_2 21_3" intLanes=":0_0_0 :0_1_0 :0_1_1 :0_1_2 :0_1_3 :0_9_0 :0_9_1 :0_9_2 :0_9_3 :0_13_0 :0_21_0 :0_21_1 :0_21_2 :0_21_3 :0_25_0 :0_26_0 :0_c1_0"/>
    <junction id=":0_31_0" type="internal" x="23.68" y="81.53" incLanes=":0_20_0" intLanes=":0_1_0 :0_1_1 :0_1_2 :0_1_3 :0_13_0 :0_c1_0"/>
    <junction id=":0_32_0" type="internal" x="36.77" y="76.90" incLanes=":0_25_0 31_0 31_1 31_2 31_3" intLanes=":0_1_0 :0_1_1 :0_1_2 :0_1_3 :0_5_0 :0_6_0 :0_7_0 :0_8_0 :0_9_0 :0_9_1 :0_9_2 :0_9_3 :0_15_0 :0_15_1 :0_15_2 :0_15_3 :0_19_0"/>
    <junction id=":0_33_0" type="internal" x="36.72" y="78.46" incLanes=":0_26_0 31_0 31_1 31_2 31_3" intLanes=":0_1_0 :0_1_1 :0_1_2 :0_1_3 :0_5_0 :0_6_0 :0_7_0 :0_8_0 :0_9_0 :0_9_1 :0_9_2 :0_9_3 :0_15_0 :0_15_1 :0_15_2 :0_15_3 :0_19_0"/>

    <connection from="11" to="42" fromLane="0" toLane="0" via=":0_20_0" tl="0" linkIndex="20" dir="r" state="o"/>
    <connection from="11" to="32" fromLane="0" toLane="0" via=":0_21_0" tl="0" linkIndex="21" dir="s" state="o"/>
    <connection from="11" to="32" fromLane="1" toLane="1" via=":0_21_1" tl="0" linkIndex="22" dir="s" state="o"/>
    <connection from="11" to="32" fromLane="2" toLane="2" via=":0_21_2" tl="0" linkIndex="23" dir="s" state="o"/>
    <connection from="11" to="32" fromLane="3" toLane="3" via=":0_21_3" tl="0" linkIndex="24" dir="s" state="o"/>
    <connection from="11" to="22" fromLane="3" toLane="3" via=":0_25_0" tl="0" linkIndex="25" dir="l" state="o"/>
    <connection from="11" to="22" fromLane="3" toLane="4" via=":0_26_0" tl="0" linkIndex="26" dir="l" state="o"/>
    <connection from="21" to="12" fromLane="0" toLane="0" via=":0_0_0" tl="0" linkIndex="0" dir="r" state="O"/>
    <connection from="21" to="42" fromLane="0" toLane="0" via=":0_1_0" tl="0" linkIndex="1" dir="s" state="o"/>
    <connection from="21" to="42" fromLane="1" toLane="1" via=":0_1_1" tl="0" linkIndex="2" dir="s" state="o"/>
    <connection from="21" to="42" fromLane="2" toLane="2" via=":0_1_2" tl="0" linkIndex="3" dir="s" state="o"/>
    <connection from="21" to="42" fromLane="3" toLane="3" via=":0_1_3" tl="0" linkIndex="4" dir="s" state="o"/>
    <connection from="21" to="32" fromLane="4" toLane="3" via=":0_5_0" tl="0" linkIndex="5" dir="l" state="o"/>
    <connection from="31" to="22" fromLane="0" toLane="0" via=":0_6_0" tl="0" linkIndex="6" dir="r" state="o"/>
    <connection from="31" to="22" fromLane="0" toLane="1" via=":0_7_0" tl="0" linkIndex="7" dir="r" state="o"/>
    <connection from="31" to="22" fromLane="0" toLane="2" via=":0_8_0" tl="0" linkIndex="8" dir="r" state="o"/>
    <connection from="31" to="12" fromLane="0" toLane="0" via=":0_9_0" tl="0" linkIndex="9" dir="s" state="o"/>
    <connection from="31" to="12" fromLane="1" toLane="1" via=":0_9_1" tl="0" linkIndex="10" dir="s" state="o"/>
    <connection from="31" to="12" fromLane="2" toLane="2" via=":0_9_2" tl="0" linkIndex="11" dir="s" state="o"/>
    <connection from="31" to="12" fromLane="3" toLane="3" via=":0_9_3" tl="0" linkIndex="12" dir="s" state="o"/>
    <connection from="31" to="42" fromLane="3" toLane="3" via=":0_13_0" tl="0" linkIndex="13" dir="l" state="o"/>
    <connection from="41" to="32" fromLane="0" toLane="0" via=":0_14_0" tl="0" linkIndex="14" dir="r" state="o"/>
    <connection from="41" to="22" fromLane="0" toLane="1" via=":0_15_0" tl="0" linkIndex="15" dir="s" state="o"/>
    <connection from="41" to="22" fromLane="1" toLane="2" via=":0_15_1" tl="0" linkIndex="16" dir="s" state="o"/>
    <connection from="41" to="22" fromLane="2" toLane="3" via=":0_15_2" tl="0" linkIndex="17" dir="s" state="o"/>
    <connection from="41" to="22" fromLane="3" toLane="4" via=":0_15_3" tl="0" linkIndex="18" dir="s" state="o"/>
    <connection from="41" to="12" fromLane="3" toLane="3" via=":0_19_0" tl="0" linkIndex="19" dir="l" state="o"/>

    <connection from=":0_0" to="12" fromLane="0" toLane="0" dir="r" state="M"/>
    <connection from=":0_1" to="42" fromLane="0" toLane="0" dir="s" state="M"/>
    <connection from=":0_1" to="42" fromLane="1" toLane="1" dir="s" state="M"/>
    <connection from=":0_1" to="42" fromLane="2" toLane="2" dir="s" state="M"/>
    <connection from=":0_1" to="42" fromLane="3" toLane="3" dir="s" state="M"/>
    <connection from=":0_5" to="32" fromLane="0" toLane="3" via=":0_27_0" dir="l" state="m"/>
    <connection from=":0_27" to="32" fromLane="0" toLane="3" dir="l" state="M"/>
    <connection from=":0_6" to="22" fromLane="0" toLane="0" dir="r" state="M"/>
    <connection from=":0_7" to="22" fromLane="0" toLane="1" dir="r" state="M"/>
    <connection from=":0_8" to="22" fromLane="0" toLane="2" dir="r" state="M"/>
    <connection from=":0_9" to="12" fromLane="0" toLane="0" dir="s" state="M"/>
    <connection from=":0_9" to="12" fromLane="1" toLane="1" dir="s" state="M"/>
    <connection from=":0_9" to="12" fromLane="2" toLane="2" dir="s" state="M"/>
    <connection from=":0_9" to="12" fromLane="3" toLane="3" dir="s" state="M"/>
    <connection from=":0_13" to="42" fromLane="0" toLane="3" via=":0_28_0" dir="l" state="m"/>
    <connection from=":0_28" to="42" fromLane="0" toLane="3" dir="l" state="M"/>
    <connection from=":0_14" to="32" fromLane="0" toLane="0" via=":0_29_0" dir="r" state="m"/>
    <connection from=":0_29" to="32" fromLane="0" toLane="0" dir="r" state="M"/>
    <connection from=":0_15" to="22" fromLane="0" toLane="1" dir="s" state="M"/>
    <connection from=":0_15" to="22" fromLane="1" toLane="2" dir="s" state="M"/>
    <connection from=":0_15" to="22" fromLane="2" toLane="3" dir="s" state="M"/>
    <connection from=":0_15" to="22" fromLane="3" toLane="4" dir="s" state="M"/>
    <connection from=":0_19" to="12" fromLane="0" toLane="3" via=":0_30_0" dir="l" state="m"/>
    <connection from=":0_30" to="12" fromLane="0" toLane="3" dir="l" state="M"/>
    <connection from=":0_20" to="42" fromLane="0" toLane="0" via=":0_31_0" dir="r" state="m"/>
    <connection from=":0_31" to="42" fromLane="0" toLane="0" dir="r" state="M"/>
    <connection from=":0_21" to="32" fromLane="0" toLane="0" dir="s" state="M"/>
    <connection from=":0_21" to="32" fromLane="1" toLane="1" dir="s" state="M"/>
    <connection from=":0_21" to="32" fromLane="2" toLane="2" dir="s" state="M"/>
    <connection from=":0_21" to="32" fromLane="3" toLane="3" dir="s" state="M"/>
    <connection from=":0_25" to="22" fromLane="0" toLane="3" via=":0_32_0" dir="l" state="m"/>
    <connection from=":0_32" to="22" fromLane="0" toLane="3" dir="l" state="M"/>
    <connection from=":0_26" to="22" fromLane="0" toLane="4" via=":0_33_0" dir="l" state="m"/>
    <connection from=":0_33" to="22" fromLane="0" toLane="4" dir="l" state="M"/>

    <connection from=":0_c0" to=":0_w1" fromLane="0" toLane="0" dir="s" state="M"/>
    <connection from=":0_c1" to=":0_w2" fromLane="0" toLane="0" dir="s" state="M"/>
    <connection from=":0_w0" to="22" fromLane="0" toLane="0" dir="s" state="M"/>
    <connection from=":0_w0" to="32" fromLane="0" toLane="0" dir="s" state="M"/>
    <connection from=":0_w0" to="42" fromLane="0" toLane="0" dir="s" state="M"/>
    <connection from=":0_w0" to="12" fromLane="0" toLane="0" dir="s" state="M"/>
    <connection from="21" to=":0_w0" fromLane="0" toLane="0" dir="s" state="M"/>
    <connection from="31" to=":0_w0" fromLane="0" toLane="0" dir="s" state="M"/>
    <connection from="41" to=":0_w0" fromLane="0" toLane="0" dir="s" state="M"/>
    <connection from="11" to=":0_w0" fromLane="0" toLane="0" dir="s" state="M"/>
    <connection from=":0_w1" to=":0_c1" fromLane="0" toLane="0" tl="0" linkIndex="22" dir="s" state="M"/>
    <connection from=":0_w2" to=":0_c0" fromLane="0" toLane="0" tl="0" linkIndex="21" dir="s" state="M"/>
    <connection from=":1_w0" to="11" fromLane="0" toLane="0" dir="s" state="M"/>
    <connection from="12" to=":1_w0" fromLane="0" toLane="0" dir="s" state="M"/>
    <connection from=":2_w0" to="21" fromLane="0" toLane="0" dir="s" state="M"/>
    <connection from="22" to=":2_w0" fromLane="0" toLane="0" dir="s" state="M"/>
    <connection from=":3_w0" to="31" fromLane="0" toLane="0" dir="s" state="M"/>
    <connection from="32" to=":3_w0" fromLane="0" toLane="0" dir="s" state="M"/>
    <connection from=":4_w0" to="41" fromLane="0" toLane="0" dir="s" state="M"/>
    <connection from="42" to=":4_w0" fromLane="0" toLane="0" dir="s" state="M"/>
</net>
