<?xml version="1.0" encoding="UTF-8"?>

<!-- generated on 12/05/20 06:19:08 by Eclipse SUMO netedit Version 1.7.0
<configuration xmlns:xsi="http://www.w3.org/2001/XMLSchema-instance" xsi:noNamespaceSchemaLocation="http://sumo.dlr.de/xsd/netconvertConfiguration.xsd">

    <input>
        <sumo-net-file value="C:\Users\Mr.Son\Desktop\sumo\test\test.net.xml"/>
    </input>

    <output>
        <output-file value="C:\Users\Mr.Son\Desktop\sumo\test\test.net.xml"/>
    </output>

    <processing>
        <geometry.min-radius.fix.railways value="false"/>
        <geometry.max-grade.fix value="false"/>
        <offset.disable-normalization value="true"/>
        <lefthand value="false"/>
    </processing>

    <junctions>
        <no-turnarounds value="true"/>
        <junctions.corner-detail value="5"/>
        <junctions.limit-turn-speed value="5.5"/>
        <rectangular-lane-cut value="false"/>
    </junctions>

    <pedestrian>
        <walkingareas value="false"/>
    </pedestrian>

    <netedit>
        <additional-files value="C:\Users\Mr.Son\Desktop\sumo\test\test.add.xml"/>
        <route-files value="C:\Users\Mr.Son\Desktop\sumo\test\test.rou.xml"/>
    </netedit>

    <report>
        <aggregate-warnings value="5"/>
    </report>

</configuration>
-->

<additional xmlns:xsi="http://www.w3.org/2001/XMLSchema-instance" xsi:noNamespaceSchemaLocation="http://sumo.dlr.de/xsd/additional_file.xsd">
    <busStop id="busStop_11_0_1" lane="11_0" startPos="45.42" endPos="55.42">
        <access lane="11_0" pos="50.15"/>
    </busStop>
    <busStop id="busStop_31_0_0" lane="31_0" startPos="48.59" endPos="58.59">
        <access lane="42_0" pos="43.13"/>
    </busStop>
    <busStop id="busStop_42_0_2" lane="42_0" startPos="39.00" endPos="49.00">
        <access lane="42_1" pos="34.69"/>
    </busStop>
</additional>
