<?xml version="1.0" encoding="UTF-8"?>

<!-- generated on 12/14/20 17:48:16 by Eclipse SUMO netedit Version 1.7.0
<configuration xmlns:xsi="http://www.w3.org/2001/XMLSchema-instance" xsi:noNamespaceSchemaLocation="http://sumo.dlr.de/xsd/netconvertConfiguration.xsd">

    <input>
        <sumo-net-file value="C:\Users\Mr.Son\Desktop\sumo\test\test.net.xml"/>
    </input>

    <output>
        <output-file value="C:\Users\Mr.Son\Desktop\sumo\test\test.net.xml"/>
    </output>

    <processing>
        <geometry.min-radius.fix.railways value="false"/>
        <geometry.max-grade.fix value="false"/>
        <offset.disable-normalization value="true"/>
        <lefthand value="false"/>
    </processing>

    <junctions>
        <no-internal-links value="false"/>
        <no-turnarounds value="true"/>
        <junctions.corner-detail value="5"/>
        <junctions.limit-turn-speed value="5.5"/>
        <rectangular-lane-cut value="false"/>
    </junctions>

    <pedestrian>
        <walkingareas value="false"/>
    </pedestrian>

    <netedit>
        <route-files value="C:\Users\Mr.Son\Desktop\sumo\test\tmp2.rou.xml"/>
    </netedit>

    <report>
        <aggregate-warnings value="5"/>
    </report>

</configuration>
-->

<routes xmlns:xsi="http://www.w3.org/2001/XMLSchema-instance" xsi:noNamespaceSchemaLocation="http://sumo.dlr.de/xsd/routes_file.xsd">
    <route edges="41 22" color="yellow" id="route_0"/>
    <route edges="31 12" color="yellow" id="route_1"/>
    <route edges="11 32" color="yellow" id="route_2"/>
    <route edges="21 42" color="yellow" id="route_3"/>
    <route edges="11 22" color="yellow" id="route_4"/>
    <flow id="flow_0" begin="0.00" route="route_0" end="500.00" probability="0.50"/>
    <flow id="flow_1" begin="500.00" route="route_1" end="1000.00" probability="0.50"/>
    <flow id="flow_2" begin="1000.00" route="route_3" end="1500.00" probability="0.10"/>
    <flow id="flow_3" begin="1300.00" route="route_2" end="1700.00" probability="0.10"/>
</routes>
