<?xml version="1.0" encoding="UTF-8"?>

<!-- generated on 12/14/20 10:30:46 by Eclipse SUMO netedit Version 1.7.0
<configuration xmlns:xsi="http://www.w3.org/2001/XMLSchema-instance" xsi:noNamespaceSchemaLocation="http://sumo.dlr.de/xsd/netconvertConfiguration.xsd">

    <input>
        <sumo-net-file value="C:\Users\Mr.Son\Desktop\sumo\rl%20with%20traffic%20light\network\traffic-network_1.net.xml"/>
    </input>

    <output>
        <output-file value="C:\Users\Mr.Son\Desktop\sumo\rl%20with%20traffic%20light\network\traffic-network_1.net.xml"/>
    </output>

    <processing>
        <geometry.min-radius.fix.railways value="false"/>
        <geometry.max-grade.fix value="false"/>
        <offset.disable-normalization value="true"/>
        <lefthand value="false"/>
    </processing>

    <junctions>
        <no-turnarounds value="true"/>
        <junctions.corner-detail value="5"/>
        <junctions.limit-turn-speed value="5.5"/>
        <rectangular-lane-cut value="false"/>
    </junctions>

    <pedestrian>
        <walkingareas value="false"/>
    </pedestrian>

    <netedit>
        <route-files value="C:\Users\Mr.Son\Desktop\sumo\rl%20with%20traffic%20light\network\traffic_network_2.rou.xml"/>
    </netedit>

    <report>
        <aggregate-warnings value="5"/>
    </report>

</configuration>
-->

<routes xmlns:xsi="http://www.w3.org/2001/XMLSchema-instance" xsi:noNamespaceSchemaLocation="http://sumo.dlr.de/xsd/routes_file.xsd">
    <route edges="-gneE8 gneE4 gneE6" color="yellow" id="route_0"/>
    <route edges="-gneE7 gneE0 gneE1" color="yellow" id="route_1"/>
    <route edges="-gneE6 -gneE4 gneE8" color="yellow" id="route_2"/>
    <route edges="-gneE1 -gneE0 gneE7" color="yellow" id="route_3"/>
    <route edges="-gneE5 -gneE3 -gneE2 -gneE0 gneE7" color="yellow" id="route_4"/>
    <flow id="flow_0" begin="0.00" route="route_1" end="500.00" probability="0.10"/>
    <flow id="flow_1" begin="500.00" route="route_0" end="1000.00" probability="0.10"/>
    <flow id="flow_2" begin="1000.00" route="route_4" end="1500.00" probability="0.10"/>
</routes>
