<?xml version="1.0" encoding="UTF-8"?>

<!-- generated on 12/14/20 10:31:19 by Eclipse SUMO GUI Version 1.7.0
-->

<configuration xmlns:xsi="http://www.w3.org/2001/XMLSchema-instance" xsi:noNamespaceSchemaLocation="http://sumo.dlr.de/xsd/sumoConfiguration.xsd">

    <input>
        <net-file value="traffic-network_1.net.xml"/>
        <route-files value="traffic_network_2.rou.xml"/>
    </input>
  <time-to-teleport value="-1"/>
</configuration>
